data_image0
_chemical_formula_structural       Ni36
_chemical_formula_sum              "Ni36"
_cell_length_a       7.6679
_cell_length_b       7.6679
_cell_length_c       12.2294
_cell_angle_alpha    90
_cell_angle_beta     90
_cell_angle_gamma    90

_space_group_name_H-M_alt    "P 1"
_space_group_IT_number       1

loop_
  _space_group_symop_operation_xyz
  'x, y, z'

loop_
  _atom_site_type_symbol
  _atom_site_label
  _atom_site_symmetry_multiplicity
  _atom_site_fract_x
  _atom_site_fract_y
  _atom_site_fract_z
  _atom_site_occupancy
  Ni  Ni1       1.0  0.66667  0.66667  0.00000  1.0000
  Ni  Ni2       1.0  0.33333  0.33333  0.00000  1.0000
  Ni  Ni3       1.0  0.50000  0.16667  0.44336  1.0000
  Ni  Ni4       1.0  0.33333  0.00000  0.59115  1.0000
  Ni  Ni5       1.0  0.66667  0.33333  0.00000  1.0000
  Ni  Ni6       1.0  0.00000  0.00000  0.00000  1.0000
  Ni  Ni7       1.0  0.66667  0.00000  0.00000  1.0000
  Ni  Ni8       1.0  0.83333  0.16667  0.14779  1.0000
  Ni  Ni9       1.0  0.16667  0.16667  0.14779  1.0000
  Ni  Ni10      1.0  0.16667  0.83333  0.14779  1.0000
  Ni  Ni11      1.0  0.00000  0.00000  0.29557  1.0000
  Ni  Ni12      1.0  0.00000  0.66667  0.29557  1.0000
  Ni  Ni13      1.0  0.33333  0.00000  0.00000  1.0000
  Ni  Ni14      1.0  0.50000  0.50000  0.44336  1.0000
  Ni  Ni15      1.0  0.50000  0.50000  0.14779  1.0000
  Ni  Ni16      1.0  0.33333  0.33333  0.59115  1.0000
  Ni  Ni17      1.0  0.33333  0.33333  0.29557  1.0000
  Ni  Ni18      1.0  0.50000  0.16667  0.14779  1.0000
  Ni  Ni19      1.0  0.33333  0.66667  0.00000  1.0000
  Ni  Ni20      1.0  0.33333  0.66667  0.59115  1.0000
  Ni  Ni21      1.0  0.83333  0.50000  0.14779  1.0000
  Ni  Ni22      1.0  0.00000  0.33333  0.00000  1.0000
  Ni  Ni23      1.0  0.16667  0.83333  0.44336  1.0000
  Ni  Ni24      1.0  0.66667  0.66667  0.29557  1.0000
  Ni  Ni25      1.0  0.16667  0.50000  0.44336  1.0000
  Ni  Ni26      1.0  0.83333  0.83333  0.14779  1.0000
  Ni  Ni27      1.0  0.16667  0.16667  0.44336  1.0000
  Ni  Ni28      1.0  0.00000  0.66667  0.00000  1.0000
  Ni  Ni29      1.0  0.33333  0.00000  0.29557  1.0000
  Ni  Ni30      1.0  0.50000  0.83333  0.14779  1.0000
  Ni  Ni31      1.0  0.50000  0.83333  0.44336  1.0000
  Ni  Ni32      1.0  0.16667  0.50000  0.14779  1.0000
  Ni  Ni33      1.0  0.66667  0.33333  0.29557  1.0000
  Ni  Ni34      1.0  0.66667  0.00000  0.29557  1.0000
  Ni  Ni35      1.0  0.00000  0.33333  0.29557  1.0000
  Ni  Ni36      1.0  0.33333  0.66667  0.29557  1.0000
